    5

Al    0.0000000000    0.0000000000    0.0000000000
Al    2.8634511297    0.0000000000    0.0000000000
Al    0.0000000000    2.8634511297    0.0000000000
Al    2.8634511297    2.8634511297    0.0000000000
 H    0.0000000000    0.0000000000    1.6460341083
    5

Al    0.0000000000    0.0000000000    0.0000000000
Al    2.8634511297    0.0000000000    0.0000000000
Al    0.0000000000    2.8634511297    0.0000000000
Al    2.8634511297    2.8634511297    0.0000000000
 H    0.7501975178    0.7501975178    1.3109278331
    5

Al    0.0000000000    0.0000000000    0.0000000000
Al    2.8634511297    0.0000000000    0.0000000000
Al    0.0000000000    2.8634511297    0.0000000000
Al    2.8634511297    2.8634511297    0.0000000000
 H    1.4317214199    1.4317214199    0.7606868741
    5

Al    0.0000000000    0.0000000000    0.0000000000
Al    2.8634511297    0.0000000000    0.0000000000
Al    0.0000000000    2.8634511297    0.0000000000
Al    2.8634511297    2.8634511297    0.0000000000
 H    2.1132580871    2.1132580871    1.3109307774
    5

Al    0.0000000000    0.0000000000    0.0000000000
Al    2.8634511297    0.0000000000    0.0000000000
Al    0.0000000000    2.8634511297    0.0000000000
Al    2.8634511297    2.8634511297    0.0000000000
 H    2.8634511297    2.8634511297    1.6460341083
