    5

Al    0.0000000000    0.0000000000    0.0000000000
Al    2.8634511297    0.0000000000    0.0000000000
Al    0.0000000000    2.8634511297    0.0000000000
Al    2.8634511297    2.8634511297    0.0000000000
 H    0.0000000000    0.0000000000    1.6460341083
    5

Al    0.0000000000    0.0000000000    0.0000000000
Al    2.8634511297    0.0000000000    0.0000000000
Al    0.0000000000    2.8634511297    0.0000000000
Al    2.8634511297    2.8634511297    0.0000000000
 H    0.7422171363    0.7422171363    1.3125712609
    5

Al    0.0000000000    0.0000000000    0.0000000000
Al    2.8634511297    0.0000000000    0.0000000000
Al    0.0000000000    2.8634511297    0.0000000000
Al    2.8634511297    2.8634511297    0.0000000000
 H    1.4317325874    1.4317325874    0.8061491883
    5

Al    0.0000000000    0.0000000000    0.0000000000
Al    2.8634511297    0.0000000000    0.0000000000
Al    0.0000000000    2.8634511297    0.0000000000
Al    2.8634511297    2.8634511297    0.0000000000
 H    2.1212232682    2.1212232682    1.3126392082
    5

Al    0.0000000000    0.0000000000    0.0000000000
Al    2.8634511297    0.0000000000    0.0000000000
Al    0.0000000000    2.8634511297    0.0000000000
Al    2.8634511297    2.8634511297    0.0000000000
 H    2.8634511297    2.8634511297    1.6460341083
