    5

Al    0.0000000000    0.0000000000    0.0000000000
Al    2.8634511297    0.0000000000    0.0000000000
Al    0.0000000000    2.8634511297    0.0000000000
Al    2.8634511297    2.8634511297    0.0000000000
 H    0.0000000000    0.0000000000    1.6460341083
    5

Al    0.0000000000    0.0000000000    0.0000000000
Al    2.8634511297    0.0000000000    0.0000000000
Al    0.0000000000    2.8634511297    0.0000000000
Al    2.8634511297    2.8634511297    0.0000000000
 H    0.7411443529    0.7411443529    1.3152649152
    5

Al    0.0000000000    0.0000000000    0.0000000000
Al    2.8634511297    0.0000000000    0.0000000000
Al    0.0000000000    2.8634511297    0.0000000000
Al    2.8634511297    2.8634511297    0.0000000000
 H    1.4317357997    1.4317357997    0.7843485997
    5

Al    0.0000000000    0.0000000000    0.0000000000
Al    2.8634511297    0.0000000000    0.0000000000
Al    0.0000000000    2.8634511297    0.0000000000
Al    2.8634511297    2.8634511297    0.0000000000
 H    2.1222674878    2.1222674878    1.3153165795
    5

Al    0.0000000000    0.0000000000    0.0000000000
Al    2.8634511297    0.0000000000    0.0000000000
Al    0.0000000000    2.8634511297    0.0000000000
Al    2.8634511297    2.8634511297    0.0000000000
 H    2.8634511297    2.8634511297    1.6460341083
