    5

Al    0.0000000000    0.0000000000    0.0000000000
Al    2.8634511297    0.0000000000    0.0000000000
Al    0.0000000000    2.8634511297    0.0000000000
Al    2.8634511297    2.8634511297    0.0000000000
 H    0.0000000000    0.0000000000    1.6460341083
    5

Al    0.0000000000    0.0000000000    0.0000000000
Al    2.8634511297    0.0000000000    0.0000000000
Al    0.0000000000    2.8634511297    0.0000000000
Al    2.8634511297    2.8634511297    0.0000000000
 H    0.7386713235    0.7386713235    1.3184203969
    5

Al    0.0000000000    0.0000000000    0.0000000000
Al    2.8634511297    0.0000000000    0.0000000000
Al    0.0000000000    2.8634511297    0.0000000000
Al    2.8634511297    2.8634511297    0.0000000000
 H    1.4318598094    1.4318598094    0.8113801883
    5

Al    0.0000000000    0.0000000000    0.0000000000
Al    2.8634511297    0.0000000000    0.0000000000
Al    0.0000000000    2.8634511297    0.0000000000
Al    2.8634511297    2.8634511297    0.0000000000
 H    2.1245948361    2.1245948361    1.3183107172
    5

Al    0.0000000000    0.0000000000    0.0000000000
Al    2.8634511297    0.0000000000    0.0000000000
Al    0.0000000000    2.8634511297    0.0000000000
Al    2.8634511297    2.8634511297    0.0000000000
 H    2.8634511297    2.8634511297    1.6460341083
